27
  
Fe      0.000000   -0.000000   -0.000000
 N      1.649900    0.945821    0.012414
 N     -1.649899   -0.945821   -0.012414
 C      2.946724    0.470981   -0.000338
 C      3.173375   -0.925747   -0.009063
 C      4.467155   -1.436117   -0.002478
 C      5.574263   -0.600142    0.010615
 C      5.362191    0.770551   -0.000389
 C      4.084138    1.320513   -0.011084
 C     -2.946723   -0.470981    0.000338
 C     -3.173376    0.925747    0.009062
 C     -4.467155    1.436117    0.002478
 C     -5.574263    0.600141   -0.010614
 C     -5.362192   -0.770550    0.000390
 C     -4.084139   -1.320513    0.011084
 H      1.616200    1.764817   -0.000875
 H      4.595562   -2.376779   -0.007432
 H      6.453961   -0.956829    0.026176
 H      6.113154    1.352760   -0.000678
 H     -1.616200   -1.764816    0.000875
 H     -4.595562    2.376779    0.007431
 H     -6.453961    0.956830   -0.026176
 H     -6.113155   -1.352761    0.000679
 H      2.318147   -1.602339   -0.014816
 H      3.950790    2.399654   -0.016244
 H     -2.318148    1.602340    0.014816
 H     -3.950790   -2.399654    0.016245
