13
  
Fe        0.000006   -0.000015   -0.000008
 N        1.831408   -0.512693   -0.005342
 N       -1.831395    0.512662    0.005326
 C        2.972286    0.265603    0.000963
 C       -2.972273   -0.265634   -0.000979
 H        1.999449   -1.314797    0.016067
 H       -1.999436    1.314765   -0.016083
 H        2.738736    1.339565   -0.024737
 H        3.642626    0.092575   -0.866000
 H        3.611120    0.127185    0.897681
 H       -3.643120   -0.091680    0.865359
 H       -2.739213   -1.338820    0.026619
 H       -3.610498   -0.127991   -0.898495
