231

Ni       2.672052000      4.332383000      6.318090000
N        2.431029000      3.289439000      4.543350000
N        1.913499000      1.805902000      3.111413000
C        1.233645000      2.922250000      2.724175000
H        0.562483000      2.929043000      1.874024000
N        2.639027000      2.033248000      4.224222000
N        0.915532000      5.371751000      5.402541000
N       -0.728414000      7.924462000      4.284788000
C       -0.381450000      7.512334000      5.544242000
C       -1.459926000      7.748567000      6.379386000
H       -1.620469000      7.578261000      7.437216000
C        0.880814000      6.793231000      5.878552000
H        1.763320000      7.288141000      5.456335000
H        1.006917000      6.776598000      6.965976000
C        1.576979000      3.882614000      3.651791000
N       -1.957173000      8.389125000      4.299753000
C        1.127430000      5.276291000      3.925508000
H        1.914278000      5.994757000      3.660840000
H        0.221656000      5.531241000      3.356647000
N       -2.413196000      8.285270000      5.581385000
C       -0.301128000      4.594594000      5.792935000
H       -0.538986000      3.903699000      4.971687000
H       -1.175360000      5.250069000      5.910091000
C       -0.061196000      3.791080000      7.021270000
C       -0.877965000      3.366090000      8.046896000
H       -1.912463000      3.564597000      8.297533000
N        1.171931000      3.242638000      7.234917000
N        1.163047000      2.487636000      8.312603000
N       -0.087319000      2.560806000      8.812526000
N        2.887905000      5.358914000      8.109726000
N        4.450414000      3.351421000      7.254596000
N        4.143454000      5.430892000      5.427790000
N        2.656057000      6.600606000      8.459275000
C        3.670775000      4.729750000      9.040453000
C        4.594310000      1.961596000      6.710541000
C        4.167555000      3.360656000      8.722378000
C        5.634895000      4.218495000      6.961300000
C        5.410888000      5.031224000      5.735711000
N        4.141824000      6.199400000      4.361229000
N        3.286941000      6.784682000      9.636645000
C        3.927842000      5.650176000     10.036219000
C        5.857218000      1.288738000      7.128632000
H        3.702917000      1.406518000      7.027679000
H        4.560300000      2.033657000      5.618031000
H        3.389804000      2.609766000      8.909263000
H        5.052517000      3.100774000      9.320657000
H        5.770161000      4.903682000      7.809939000
H        6.556767000      3.625497000      6.888994000
C        6.250898000      5.588284000      4.792955000
N        5.427105000      6.302136000      3.975370000
H        4.507419000      5.601432000     10.949786000
N        6.094404000      0.826324000      8.396452000
C        7.032144000      1.171557000      6.405748000
H        7.320470000      5.533274000      4.630262000
N        7.347050000      0.444053000      8.494093000
H        7.293587000      1.414536000      5.382778000
N        7.929621000      0.652127000      7.277786000
H        8.748201000      3.420731000      5.679437000
H       10.339693000      4.137302000      5.995454000
C        9.368272000      3.898820000      6.452159000
H        8.896247000      4.848361000      6.748322000
H        8.031706000     -1.020700000      4.628653000
C        9.551517000      2.986179000      7.680942000
H       12.179548000      2.368450000      7.139346000
C       11.519291000      1.509626000      7.013199000
C       10.147599000      1.647529000      7.264575000
C       12.051681000      0.285507000      6.604295000
C        8.510998000     -1.960888000      4.936814000
H        9.395030000     -2.114395000      4.299544000
H       13.122741000      0.198896000      6.413167000
H        8.556129000      2.795892000      8.111668000
C        9.346355000      0.504779000      7.073415000
C       11.227628000     -0.829236000      6.438429000
C        9.847503000     -0.745497000      6.669719000
H       11.362499000      4.003157000      8.390486000
C       10.378258000      3.691942000      8.767674000
H        7.803506000     -2.783048000      4.753590000
H       11.663731000     -1.775314000      6.117746000
H        9.854627000      4.596958000      9.107557000
C        8.920491000     -1.925477000      6.423283000
H        8.008029000     -1.767829000      7.018402000
H       10.532559000      3.036198000      9.635536000
C        9.524955000     -3.268528000      6.857859000
H       10.384047000     -3.549491000      6.230757000
H        8.772167000     -4.063823000      6.757780000
H        9.858788000     -3.237397000      7.904480000
H       -2.046237000     10.005520000      8.152477000
H       -3.263309000     11.212961000      8.620747000
C       -2.482990000     10.977041000      7.881895000
H       -1.691723000     11.737688000      7.954881000
H       -3.235608000      5.645706000      7.346626000
C       -3.078058000     10.953307000      6.458820000
H       -5.768984000     11.045804000      7.090725000
C       -5.454004000     10.059894000      6.749783000
C       -4.123768000      9.853784000      6.359284000
C       -6.381061000      9.016741000      6.714399000
C       -3.989873000      5.199571000      6.680731000
H       -4.909313000      5.062058000      7.267972000
H       -7.410554000      9.198396000      7.027162000
H       -2.263556000     10.708360000      5.759718000
C       -3.780177000      8.556796000      5.938462000
C       -6.004222000      7.742961000      6.285449000
C       -4.688241000      7.481851000      5.881359000
H       -4.365483000     12.699938000      6.788130000
C       -3.617106000     12.336899000      6.068028000
H       -3.639269000      4.205148000      6.365430000
H       -6.743629000      6.941410000      6.265126000
H       -2.793176000     13.064892000      6.054088000
C       -4.255083000      6.087298000      5.448504000
H       -3.309382000      6.182038000      4.892491000
H       -4.079546000     12.319537000      5.071024000
C       -5.263315000      5.419381000      4.500201000
H       -6.213593000      5.199528000      5.007212000
H       -4.856222000      4.466122000      4.134443000
H       -5.475400000      6.060382000      3.633520000
H        0.416348000      8.237761000      8.801917000
H       -0.318048000      9.397332000      9.931076000
C       -0.042109000      8.341430000      9.795418000
H       -0.963225000      7.740907000      9.833487000
H        4.623877000      7.712242000      7.439708000
C        0.932724000      7.889519000     10.900627000
H        1.475439000     10.457148000     11.721247000
C        2.336151000      9.986107000     11.246143000
C        2.236968000      8.663638000     10.790219000
C        3.520628000     10.704760000     11.096450000
C        5.557704000      8.206607000      7.739857000
H        5.518874000      9.243763000      7.375307000
H        3.579644000     11.731864000     11.458977000
H        1.152874000      6.824532000     10.731482000
C        3.377268000      8.116379000     10.181134000
C        4.634975000     10.125294000     10.482873000
C        4.593054000      8.811916000      9.999401000
H       -0.029906000      9.038120000     12.502663000
C        0.289250000      8.007895000     12.290277000
H        6.392169000      7.700305000      7.231281000
H        5.546274000     10.711805000     10.373439000
H       -0.603563000      7.369062000     12.343443000
C        5.778439000      8.186176000      9.268142000
H        5.847535000      7.132069000      9.578176000
H        0.985795000      7.693626000     13.080080000
C        7.125159000      8.833823000      9.614487000
H        7.193896000      9.860827000      9.227322000
H        7.940235000      8.257517000      9.154430000
H        7.294661000      8.860038000     10.699871000
H        1.946315000      2.008146000     -0.259290000
H        2.616371000      0.627415000     -1.159350000
C        2.865716000      1.438308000     -0.459068000
H        3.586316000      2.108615000     -0.950623000
H       -1.949329000      0.136299000      3.733802000
C        3.464838000      0.862907000      0.837725000
H        2.717059000     -1.729561000      0.270488000
C        2.182818000     -1.322495000      1.129029000
C        2.447777000     -0.011896000      1.552553000
C        1.247680000     -2.114822000      1.795648000
C       -1.425561000     -0.162417000      4.652767000
H       -1.563900000     -1.243855000      4.794078000
H        1.059419000     -3.132627000      1.451260000
H        3.702469000      1.710387000      1.502543000
C        1.712652000      0.454243000      2.652887000
C        0.555199000     -1.622609000      2.904284000
C        0.768696000     -0.316260000      3.361593000
H        4.631187000     -0.706907000     -0.152294000
C        4.779316000      0.116646000      0.560501000
H       -1.910889000      0.341511000      5.500373000
H       -0.160947000     -2.263514000      3.419056000
H        5.517480000      0.801812000      0.119239000
C        0.060939000      0.219218000      4.600041000
H        0.105977000      1.320125000      4.572806000
H        5.204035000     -0.299349000      1.484542000
C        0.806691000     -0.242090000      5.867507000
H        0.758612000     -1.336554000      5.965521000
H        0.353112000      0.200079000      6.765554000
H        1.861303000      0.060231000      5.835615000
H        6.972489000      3.989346000      1.075197000
H        6.036281000      4.327717000     -0.402208000
C        5.959826000      4.017361000      0.649675000
H        5.554082000      2.996408000      0.664111000
H        8.180020000      7.862252000      4.833191000
C        5.043032000      4.956167000      1.449955000
H        5.867145000      6.609126000     -0.580394000
C        5.978030000      7.076076000      0.399142000
C        5.615094000      6.362320000      1.549670000
C        6.476699000      8.376132000      0.490708000
C        7.838377000      8.905999000      4.780443000
H        8.518959000      9.447667000      4.107055000
H        6.758966000      8.910730000     -0.417369000
H        4.958199000      4.539979000      2.465754000
C        5.776122000      7.025015000      2.779027000
C        6.610131000      9.003354000      1.731536000
C        6.250366000      8.342302000      2.913048000
H        3.645128000      5.377069000     -0.178560000
C        3.624064000      4.999506000      0.854150000
H        7.924747000      9.347501000      5.783895000
H        6.990833000     10.023365000      1.780229000
H        3.184517000      3.992302000      0.836341000
C        6.387013000      9.005759000      4.274203000
H        5.746673000      8.454142000      4.980017000
H        2.965379000      5.653058000      1.442654000
C        5.902653000     10.463355000      4.276605000
H        6.550981000     11.107426000      3.665642000
H        5.919178000     10.858225000      5.302527000
H        4.876046000     10.542962000      3.892863000
H       -3.610971000      1.878887000      8.536790000
H       -4.097153000      0.297127000      9.180510000
C       -3.478520000      0.793494000      8.418941000
H       -3.861940000      0.503581000      7.429496000
H       -0.117855000      4.918000000     12.058502000
C       -2.002987000      0.380138000      8.562677000
H       -2.592221000     -0.574221000     11.043247000
C       -1.843990000      0.218822000     11.084726000
C       -1.429591000      0.834714000      9.896639000
C       -1.309697000      0.596648000     12.316045000
C        0.823877000      4.427335000     12.340339000
H        0.714563000      4.038301000     13.362018000
H       -1.647239000      0.102949000     13.228169000
H       -1.439483000      0.876617000      7.757686000
C       -0.468734000      1.859543000     10.011104000
C       -0.337609000      1.593701000     12.386437000
C        0.108334000      2.255423000     11.234167000
H       -2.417388000     -1.708821000      9.086893000
C       -1.827228000     -1.134094000      8.359444000
H        1.616725000      5.190115000     12.364357000
H        0.082206000      1.866641000     13.354948000
H       -2.167263000     -1.419657000      7.354050000
C        1.194115000      3.315610000     11.346723000
H        1.331541000      3.788659000     10.363144000
H       -0.773181000     -1.427271000      8.461257000
C        2.528291000      2.648983000     11.731840000
H        2.463418000      2.202409000     12.734365000
H        3.340316000      3.390069000     11.748520000
H        2.793859000      1.850926000     11.024735000
