5
  
Ni   0.001360   -0.007740   -0.007006
N    1.223359   -1.218406   -1.163091
N    1.953093    0.130495    1.077203
N   -1.209357    1.232653    1.135756
N   -1.981011   -0.147093   -1.033013
N   -0.715379   -1.679856    0.917490
N    0.726490    1.701439   -0.918804
H   -2.270592    0.737503   -1.458161
H   -1.583286    1.992246    0.562408
H   -1.527477   -1.498994    1.512767
H   -2.708910   -0.418410   -0.370547
H    2.671643    0.548863    0.484228
H    1.546294    1.530041   -1.506216
H    1.483113   -2.070558   -0.660318
H    2.297900   -0.786298    1.372054
H   -1.997471   -0.837497   -1.789738
H    1.904687    0.699764    1.927366
H   -0.732029    1.680988    1.925148
H    1.003352    2.391743   -0.216404
H    0.802488   -1.527334   -2.045825
H   -1.006463   -2.380200    0.230325
H    2.096101   -0.753588   -1.420883
H    0.048131    2.164878   -1.531052
H   -2.012681    0.749642    1.544138
H   -0.033245   -2.140682    1.528091
