37
  
 Ni           -0.002511   -0.007479   -0.005555
 N            -1.972723   -0.480979   -0.440977
 N            -0.794573   -0.594580    2.002386
 N             1.978841    0.433405    0.430543
 N             0.824086    0.627414   -1.984330
 N            -0.528988    1.963325    0.050413
 N             0.549659   -2.000561   -0.040338
 N            -2.539395   -1.002910   -1.503799
 H             0.032473   -0.727391    2.600455
 N             2.570333    0.922346    1.492998
 H            -0.010840    0.837799   -2.549952
 N            -1.402376    2.618164    0.782901
 N             1.436047   -2.657717   -0.757259
 H             1.874623    1.228093    2.200359
 H            -3.575565   -1.001432   -1.389161
 H             1.944705   -2.051388   -1.422112
 H            -1.359364    3.638044    0.577346
 H             1.175874   -0.219293   -2.447142
 C             2.598097    0.235578   -0.308799
 C            -0.038178    2.528098   -0.589413
 H             1.504825    1.357143   -2.180172
 H            -1.408430   -1.378861    2.204731
 C             0.056703   -2.563207    0.599713
 C            -2.602825   -0.275591    0.287053
 H            -1.244995    0.246887    2.383092
 H             2.394805   -0.530914   -1.058494
 H             3.685460    0.032726   -0.051209
 H             2.921579    1.050257   -1.019198
 H            -1.050590   -2.472968    0.680752
 H             0.271710   -2.475942    1.696616
 H             0.181166   -3.676659    0.538011
 H            -3.715585   -0.185008    0.103513
 H            -2.456594    0.642449    0.910540
 H            -2.734895   -0.969562    1.155366
 H            -0.091452    3.654789   -0.554799
 H            -0.261666    2.451501   -1.685013
 H             1.063918    2.414515   -0.697080
